version 3
run General-0-20230509-03:19:38-29352
attr configname General
attr datetime 20230509-03:19:38
attr datetimef 20230509-031938
attr experiment General
attr inifile omnetpp.ini
attr iterationvars ""
attr iterationvarsd ""
attr iterationvarsf ""
attr measurement ""
attr network Ffxivsim
attr processid 29352
attr repetition 0
attr replication #0
attr resultdir results
attr runnumber 0
attr seedset 0
config network Ffxivsim

par Ffxivsim.source typename "\"source\""
par Ffxivsim.source samples 1000000
par Ffxivsim.queue typename "\"queue\""
statistic Ffxivsim.queue queueLength
field count 53967
field mean 151432.01860396
field stddev 89073.952511162
field min 0
field max 306056
field sum 8172331748
field sqrsum 1.6657280584162e+15
bin	-inf	0
bin	-0.5	1193
bin	4587.02	821
bin	9174.54	898
bin	13762.06	796
bin	18349.58	807
bin	22937.1	894
bin	27524.62	739
bin	32112.14	800
bin	36699.66	780
bin	41287.18	787
bin	45874.7	801
bin	50462.22	762
bin	55049.74	809
bin	59637.26	766
bin	64224.78	852
bin	68812.3	766
bin	73399.82	790
bin	77987.34	784
bin	82574.86	808
bin	87162.38	827
bin	91749.9	783
bin	96337.42	788
bin	100924.94	832
bin	105512.46	799
bin	110099.98	845
bin	114687.5	796
bin	119275.02	896
bin	123862.54	845
bin	128450.06	871
bin	133037.58	859
bin	137625.1	813
bin	142212.62	789
bin	146800.14	762
bin	151387.66	771
bin	155975.18	795
bin	160562.7	779
bin	165150.22	736
bin	169737.74	810
bin	174325.26	778
bin	178912.78	758
bin	183500.3	814
bin	188087.82	758
bin	192675.34	825
bin	197262.86	863
bin	201850.38	774
bin	206437.9	776
bin	211025.42	815
bin	215612.94	822
bin	220200.46	849
bin	224787.98	808
bin	229375.5	815
bin	233963.02	784
bin	238550.54	701
bin	243138.06	807
bin	247725.58	777
bin	252313.1	768
bin	256900.62	817
bin	261488.14	815
bin	266075.66	768
bin	270663.18	819
bin	275250.7	814
bin	279838.22	815
bin	284425.74	784
bin	289013.26	828
bin	293600.78	753
bin	298188.3	822
bin	302775.82	591
bin	307363.34	0
statistic Ffxivsim.queue queueTime
field count 53947
field mean 1513.3155231416
field stddev 891.95774774828
field min 0
field max 3062.1363624707
field sum 81638832.52692
field sqrsum 166464136451.94
bin	-inf	0
bin	-0.5	1040
bin	40.46	749
bin	81.42	805
bin	122.38	781
bin	163.34	704
bin	204.3	798
bin	245.26	742
bin	286.22	645
bin	327.18	735
bin	368.14	694
bin	409.1	683
bin	450.06	758
bin	491.02	722
bin	531.98	694
bin	572.94	700
bin	613.9	710
bin	654.86	719
bin	695.82	734
bin	736.78	681
bin	777.74	707
bin	818.7	731
bin	859.66	776
bin	900.62	678
bin	941.58	697
bin	982.54	705
bin	1023.5	741
bin	1064.46	714
bin	1105.42	749
bin	1146.38	724
bin	1187.34	754
bin	1228.3	772
bin	1269.26	715
bin	1310.22	795
bin	1351.18	679
bin	1392.14	754
bin	1433.1	686
bin	1474.06	680
bin	1515.02	689
bin	1555.98	684
bin	1596.94	738
bin	1637.9	662
bin	1678.86	708
bin	1719.82	694
bin	1760.78	691
bin	1801.74	706
bin	1842.7	714
bin	1883.66	686
bin	1924.62	700
bin	1965.58	771
bin	2006.54	744
bin	2047.5	667
bin	2088.46	702
bin	2129.42	720
bin	2170.38	738
bin	2211.34	766
bin	2252.3	728
bin	2293.26	733
bin	2334.22	730
bin	2375.18	624
bin	2416.14	694
bin	2457.1	689
bin	2498.06	683
bin	2539.02	696
bin	2579.98	720
bin	2620.94	735
bin	2661.9	689
bin	2702.86	715
bin	2743.82	707
bin	2784.78	780
bin	2825.74	706
bin	2866.7	698
bin	2907.66	732
bin	2948.62	657
bin	2989.58	724
bin	3030.54	576
bin	3071.5	0
par Ffxivsim.classifier typename "\"classifier\""
par Ffxivsim.classifier maxPlayers 60
par Ffxivsim.Crystal typename "\"server\""
par Ffxivsim.Balmung typename "\"server\""
par Ffxivsim.Primal typename "\"server\""
par Ffxivsim.Omega typename "\"server\""
par Ffxivsim.Garuda typename "\"server\""
par Ffxivsim typename "\"Ffxivsim\""

